/*--------------------------------*- C++ -*----------------------------------*\
| =========                 |                                                 |
| \\      /  F ield         | OpenFOAM: The Open Source CFD Toolbox           |
|  \\    /   O peration     | Version:  v2212                                 |
|   \\  /    A nd           | Website:  www.openfoam.com                      |
|    \\/     M anipulation  |                                                 |
\*---------------------------------------------------------------------------*/
FoamFile
{
    version     2.0;
    format      ascii;
    class       dictionary;
    location    "system";
    object      fvSolution;
}
// * * * * * * * * * * * * * * * * * * * * * * * * * * * * * * * * * * * * * //

solvers
{
    p
    {
        solver           GAMG;
        tolerance        1e-9;
        relTol           0.1;
        smoother         GaussSeidel;
        nPreSweeps       0;
        nPostSweeps      2;
        cacheAgglomeration on;
        agglomerator     faceAreaPair;
        nCellsInCoarsestLevel 10;
        mergeLevels      1;
        maxIter 50; 
    }
    U
    {
        solver           smoothSolver;
        smoother         GaussSeidel;
        tolerance        1e-30;
        relTol           0.1;
        nSweeps          1;
    }
}

SIMPLE
{
    nS nSmooth;
    cS cSmooth;

    pRefCell 0;
    pRefValue 0;

    nNonOrthogonalCorrectors 0;
    residualControl
    {
       p     1e-9;
       U     1e-9;
    }
}

relaxationFactors
{
    fields
    {
       p 0.3;
    }

    equations
    {
        U 0.9;
    }
}


// ************************************************************************* //
